Circuit: * C:\Users\User\Desktop\Variable_Feedback\Draft1.asc

Per .tran options, skipping operating point for transient analysis.
Ignoring empty pin current: Ix(u1:1)
Ignoring empty pin current: Ix(u1:2)

Date: Sat Mar 27 22:19:36 2021
Total elapsed time: 0.879 seconds.

tnom = 27
temp = 27
method = modified trap
totiter = 160084
traniter = 160084
tranpoints = 80033
accept = 48036
rejected = 31997
matrix size = 7
fillins = 0
solver = Normal
Matrix Compiler1: 232 bytes object code size  0.1/0.1/[0.0]
Matrix Compiler2: 447 bytes object code size  0.0/0.1/[0.0]

